NOCO2\KTUEO+5O^E\U+=\L_]D^\+=LTN_E[K2_N]EK1Tΐ_]^O;\\N^MO>5ˠEE\_ؐDKTETȐUTUETTTT_MO]E__TOOOM]?E\CE_?TVE_E,TLDVKY9T]D?]d8;O^D_O\e3:]LCT_3E]\C\[HHK9DEC_EOLEZU[C4_\EU]O	$UE	_DUL!/LB#42#D\\UK_[K2-LNBUM8DUT2.K+?$4KY^TO2.S"	?3C4CUTO[K2$C/43L3ؐ!$EC#><3LE2%^T24:2$N#2;#Cِ!ڐO3#D4CET3,<.T_^9;C4L_<,MD2"29>_?NMC#K4T?KT>O4E2$N<[EEC"4CE"!^fX4_^E3,EeO?	LMOOD_2MSUTE[CMUO52-LUK4>$DTT4#OUK4CODT_!OUC24NDB(DTUOT3"4=D.,MD^UEKT3"4MDڐ4?TJ3MUD;#4?$L_C$HTC;+>#D_MDTED=;K2>TTUD83C4]TEEK2=UET3/L]]D]=3">T3DUC8<!3I]EETUD22#ET3DUC83C<OKT_T3"MT3DUC83L!#TN-D;#KT3DKDUE	]TK;#S4C;+4K2TD^MUD2#UDD;+4C4C#>D_ETE	"ETC;,3	DY_E^4OhC;,3DUEJEE_^3hC;-<C=DEOE\4XT3
OM=N/TK]4VhD3U\\]-T\43DVeTC2-;UT_E3"4>8UUDL4LD3"4]UMOE^,-UD"OEOED
#^\_TOSMETO.?"E^D]LUEN3/4L24THXTUENEȐU?4UT_TI\T?TU]-_S+:NDOEؐ[eD^U	EeH+<4^^_]<\eTK8CETEEOLNMNlK;#?TODNE]ED4K5I
D^NEO
TC4UNDM_ULEDvU9\еCO___EISXh𴵉ETEETZ	DTEL4EXTTM]TCETTJD]TO_E\3OO
[ET^K\]T\NCOETE
MDEEE^VhE	ِETEEVgUefUo443D	MUUJHEKTeVUe\?DT\UNOL+UfUekVO_LUN__+]f[kVeekSU?O_M\_