TT^TEfTEVTOf^ȐL-^lU/n_M,oڐ_]LE[Mm-DˠK\/Uݐem~Uݐm^"?ؐEg̐UEl<\NUETmeTfTVem\nfuh._m~ސ}ND3L/D3,ڐLC?,>]2ovV_/2(<\]EO/">.X]mNUC"?Lm]nvLKS2>[dLflvM8!\onv^C$;#!-fT"L2~vUfِT>2oe^eDD\-Tof^NEe4ܐ_\eL<]]LeoɐEle\VoM<]f4UڐLTLNL[ll$;MVn\3ELNM\\D44TODTTLE\^oD	_TL^UeTM\[N~K<OXT\nLfUO<K_TO]}eTND\_\lK<TU3/\TLM_K=JC22\\LOe\CKX3"3"C#>C;L3#NMLM_!.D3#?3"(M/C23C+2L_UEE[l\>L;$U3#>_3M"FUH^L]K^!,K>D3CE?_\!,OEK4VT>EE^?K2(E[CEfT2#OD]_/DXVT3D3#;L_E1(MTNC2/H?EMOTLM1E[24!#DUܐDHD3#;/3EDUʐ/UK?L?E[ETU_LE]L,_?L>>EDUK_U/3M"TETE]\C[EDUD[NO?=O;N>ETETETE_DUDE_,3?M3_[LLLUDO?C4D<TMTMLUEX3?_TLN[ON3C"<OLUC"3D=TEMV^OOO3C>DTKTk\NDL,T3E]^_OET4C=ETE_U<DU3UDUDED3K[C>ETE]o\E_44TETK^ETODC>UK\ETODT3^LUC>OMDMT3DTLO3DNNCM=TN=4N4TNOTME_?3TC4NLC