V|ku[ELU_;CCO"<#Ef[nSFlEVETENM4#/EfKm?feV\DTC4?>?"4[k^4k]Vg~vVEL<DUCTC>"5VEfU.o}gfOD[ECEL=<"44VeD<no|gve^E=O3?#;C3U	edD=NT=3"CGf|dTM4T>DUL<!#,4?~gdUO;ECTC?в-e]e4T<N<!#,25_wfeTE[CEC?"$o|gkE\4UC3#2./^v\DUO4C?ED4C32.$nof\TL4C4CUCE332.$nvD\eeUD[ECK4C[EC#22.$e_vDVk4VTVTUCD43OT?=C#"_vOTE\D?8K2=C#"vO|lveMUD$4Ud!322.nOv2,TUDVC#?D322/odDDUDUK2?D322-ojl~T2)DU3D<C>C#"vmv|m~TT4E[K;#2;-~vmOEC?=C#"~|mf~TEC#?#"LgffOS?##"DoOOT"<C;,_vw[eDTETU">D?22.\gvm\TVeDT4#C>#"modTEMC4"?"2-mmlEND?4O42#3#"oECC2#322..eVl]MOECD4UC2#22/^oEeMEC4K2#2-wfe;C##"Vd8B##"EEmlfT"?"2,]^N4C$ET4"D=D3#"MT3D42+4K43ECD>"2-l\T33L">ECD3#"Ȑ_]NC4O#C<#8<]UT4C4C"?D33"еE_3D2#3"O?4CC">C>#2!L>?23C3"_\O>L<"=EC<D>"2/2]^D\<D#T33	3!"<33#"ETT"CC="2,=ЉLOL?4C843#"<EDCDVUD43#"DIC83#"/\MK:\3C<"2-2"44C;C<"2..OE24CD8<<"2.,MK;C=>CL+O>"2/#DUC4C	ɐOM-4E4#DeM3,?DH?4E\#DUM_?NT];NC#DT4N3"2#NMTEL<?O2;KLC+;+-MO#CD>82/OUED3D4B43DO#/T_\O/ECC#<D#?^TT#<C"!"5K\_]EKTCC3:,#TMETTT_C<?42K;#>"2.,\N_N/O>.,/M_MC.<"2.ODEELO33="ʐDT]EU?82#?/2,OUEDTTTU?4DH"3D#2-TU?O3O+2-3"3̐TTS#D3?	^T;.UMT?#?-3/UE;/B#/#2-3#^_C2#2("EX[E"3?#D2?_nO]T"3DSLM<?8("3-OTMS\T\?,NO_C=SL]32?,;-K]NC4ON-4#?	>!34O2">,DUN4?44O\2,3C+2/ؐ_<C"4O];#2#D3UHD2#"?O?LU2#;EOmUO42?K42#9"-ODOS"3H4CC2D!#2"42#,O44C44ULDU3$K2:3"24C/.e?Ul#K8C#4UJ<3S	"2#,/3M=d	UT3"3+,"